/*---------------------------------------------------------------------------*\
| =========                 |                                                 |
| \\      /  F ield         | OpenFOAM: The Open Source CFD Toolbox           |
|  \\    /   O peration     | Version:  v1806                                 |
|   \\  /    A nd           | Web:      www.OpenFOAM.com                      |
|    \\/     M anipulation  |                                                 |
\*---------------------------------------------------------------------------*/
Build  : v1806
Arch   : "LSB;label=32;scalar=64"
Exec   : laplaceAdjointFoam
Date   : Aug 31 2019
Time   : 00:01:48
Host   : "MATH-AJIT-15"
PID    : 3194
I/O    : uncollated
Case   : /home/ajit/Desktop/optimalControlHeatEq/tutorial/laplaceAdjointFoamCase
nProcs : 1
trapFpe: Floating point exception trapping enabled (FOAM_SIGFPE).
fileModificationChecking : Monitoring run-time modified files using timeStampMaster (fileModificationSkew 10)
allowSystemOperations : Allowing user-supplied system call operations

// * * * * * * * * * * * * * * * * * * * * * * * * * * * * * * * * * * * * * //
Create time

Create mesh for time = 0

Reading physicalProperties

Reading numericalParameters

Reading target field

Reading source field

Using #codeStream at line 28 in file "/home/ajit/Desktop/optimalControlHeatEq/tutorial/laplaceAdjointFoamCase/constant/f"
Using #codeStream with "/home/ajit/Desktop/optimalControlHeatEq/tutorial/laplaceAdjointFoamCase/dynamicCode/platforms/linux64GccDPInt32Opt/lib/libcodeStream_6c99985f76c456deab0e23c303f82bf40508194d.so"
Reading field y

Reading adjoint field

Reading control u

alpha found, alpha = 10, J = 30.1214, phip00.105952
alpha found, alpha = 10, J = 29.1531, phip00.0985752
alpha found, alpha = 10, J = 28.2522, phip00.091714
alpha found, alpha = 10, J = 27.414, phip00.0853327
alpha found, alpha = 10, J = 26.6341, phip00.0793976
alpha found, alpha = 10, J = 25.9084, phip00.0738776
alpha found, alpha = 10, J = 25.2331, phip00.0687434
alpha found, alpha = 10, J = 24.6047, phip00.0639682
alpha found, alpha = 10, J = 24.0199, phip00.0595267
alpha found, alpha = 10, J = 23.4758, phip00.0553956
alpha found, alpha = 10, J = 22.9693, phip00.0515531
alpha found, alpha = 10, J = 22.498, phip00.0479791
alpha found, alpha = 10, J = 22.0593, phip00.0446548
alpha found, alpha = 10, J = 21.651, phip00.0415626
alpha found, alpha = 10, J = 21.271, phip00.0386863
alpha found, alpha = 10, J = 20.9172, phip00.0360108
alpha found, alpha = 10, J = 20.5879, phip00.0335221
alpha found, alpha = 10, J = 20.2813, phip00.031207
alpha found, alpha = 10, J = 19.9958, phip00.0290534
alpha found, alpha = 10, J = 19.7301, phip00.0270501
alpha found, alpha = 10, J = 19.4826, phip00.0251864
alpha found, alpha = 10, J = 19.2522, phip00.0234527
alpha found, alpha = 10, J = 19.0376, phip00.0218398
alpha found, alpha = 10, J = 18.8378, phip00.0203392
alpha found, alpha = 10, J = 18.6517, phip00.0189432
alpha found, alpha = 10, J = 18.4783, phip00.0176444
alpha found, alpha = 10, J = 18.3168, phip00.016436
alpha found, alpha = 10, J = 18.1663, phip00.0153116
alpha found, alpha = 10, J = 18.0262, phip00.0142655
alpha found, alpha = 10, J = 17.8956, phip00.0132921
alpha found, alpha = 10, J = 17.7738, phip00.0123864
alpha found, alpha = 10, J = 17.6604, phip00.0115436
alpha found, alpha = 10, J = 17.5547, phip00.0107592
alpha found, alpha = 10, J = 17.4561, phip00.0100294
alpha found, alpha = 10, J = 17.3642, phip00.00935013
alpha found, alpha = 10, J = 17.2785, phip00.00871798
alpha found, alpha = 10, J = 17.1986, phip00.00812963
alpha found, alpha = 10, J = 17.1241, phip00.00758202
alpha found, alpha = 10, J = 17.0546, phip00.00707231
alpha found, alpha = 10, J = 16.9897, phip00.00659785
alpha found, alpha = 10, J = 16.9292, phip00.00615619
alpha found, alpha = 10, J = 16.8727, phip00.00574503
alpha found, alpha = 10, J = 16.82, phip00.00536224
alpha found, alpha = 10, J = 16.7708, phip00.00500585
alpha found, alpha = 10, J = 16.7248, phip00.00467402
alpha found, alpha = 10, J = 16.6819, phip00.00436503
alpha found, alpha = 10, J = 16.6418, phip00.00407729
alpha found, alpha = 10, J = 16.6044, phip00.00380932
alpha found, alpha = 10, J = 16.5694, phip00.00355975
alpha found, alpha = 10, J = 16.5367, phip00.00332729
alpha found, alpha = 10, J = 16.5061, phip00.00311075
alpha found, alpha = 10, J = 16.4774, phip00.00290902
alpha found, alpha = 10, J = 16.4507, phip00.00272108
alpha found, alpha = 10, J = 16.4256, phip00.00254597
alpha found, alpha = 10, J = 16.4022, phip00.00238278
alpha found, alpha = 10, J = 16.3803, phip00.00223071
alpha found, alpha = 10, J = 16.3597, phip00.00208896
alpha found, alpha = 10, J = 16.3404, phip00.00195684
alpha found, alpha = 10, J = 16.3224, phip00.00183366
alpha found, alpha = 10, J = 16.3055, phip00.00171881
alpha found, alpha = 10, J = 16.2896, phip00.00161171
alpha found, alpha = 10, J = 16.2747, phip00.00151183
alpha found, alpha = 10, J = 16.2608, phip00.00141866
alpha found, alpha = 10, J = 16.2477, phip00.00133175
alpha found, alpha = 10, J = 16.2353, phip00.00125065
alpha found, alpha = 10, J = 16.2238, phip00.00117498
alpha found, alpha = 10, J = 16.2129, phip00.00110434
alpha found, alpha = 10, J = 16.2027, phip00.0010384
alpha found, alpha = 10, J = 16.1931, phip00.000976833
alpha found, alpha = 10, J = 16.184, phip00.000919336
alpha found, alpha = 10, J = 16.1755, phip00.00086563
alpha found, alpha = 10, J = 16.1674, phip00.000815455
alpha found, alpha = 10, J = 16.1599, phip00.000768567
alpha found, alpha = 10, J = 16.1527, phip00.000724743
alpha found, alpha = 10, J = 16.146, phip00.000683771
alpha found, alpha = 10, J = 16.1396, phip00.000645457
alpha found, alpha = 10, J = 16.1336, phip00.000609619
alpha found, alpha = 10, J = 16.1279, phip00.000576088
alpha found, alpha = 10, J = 16.1225, phip00.000544707
alpha found, alpha = 10, J = 16.1175, phip00.000515329
alpha found, alpha = 10, J = 16.1126, phip00.000487819
alpha found, alpha = 10, J = 16.1081, phip00.000462049
alpha found, alpha = 10, J = 16.1038, phip00.000437902
alpha found, alpha = 10, J = 16.0997, phip00.000415268
alpha found, alpha = 10, J = 16.0958, phip00.000394045
alpha found, alpha = 10, J = 16.0921, phip00.000374138
alpha found, alpha = 10, J = 16.0886, phip00.000355458
alpha found, alpha = 10, J = 16.0852, phip00.000337923
alpha found, alpha = 10, J = 16.0821, phip00.000321457
alpha found, alpha = 10, J = 16.079, phip00.000305987
alpha found, alpha = 10, J = 16.0762, phip00.000291448
alpha found, alpha = 10, J = 16.0734, phip00.000277777
alpha found, alpha = 10, J = 16.0708, phip00.000264917
alpha found, alpha = 10, J = 16.0683, phip00.000252815
alpha found, alpha = 10, J = 16.0659, phip00.00024142
alpha found, alpha = 10, J = 16.0636, phip00.000230686
alpha found, alpha = 10, J = 16.0614, phip00.00022057
alpha found, alpha = 10, J = 16.0594, phip00.000211031
alpha found, alpha = 10, J = 16.0574, phip00.000202031
alpha found, alpha = 10, J = 16.0554, phip00.000193536
alpha found, alpha = 10, J = 16.0536, phip00.000185513
alpha found, alpha = 10, J = 16.0518, phip00.000177932
alpha found, alpha = 10, J = 16.0502, phip00.000170764
alpha found, alpha = 10, J = 16.0485, phip00.000163983
alpha found, alpha = 10, J = 16.047, phip00.000157564
alpha found, alpha = 10, J = 16.0455, phip00.000151485
alpha found, alpha = 10, J = 16.044, phip00.000145724
alpha found, alpha = 10, J = 16.0426, phip00.00014026
alpha found, alpha = 10, J = 16.0413, phip00.000135076
alpha found, alpha = 10, J = 16.04, phip00.000130155
alpha found, alpha = 10, J = 16.0388, phip00.000125479
alpha found, alpha = 10, J = 16.0376, phip00.000121034
alpha found, alpha = 10, J = 16.0364, phip00.000116806
alpha found, alpha = 10, J = 16.0353, phip00.000112782
alpha found, alpha = 10, J = 16.0342, phip00.000108949
alpha found, alpha = 10, J = 16.0332, phip00.000105296
alpha found, alpha = 10, J = 16.0322, phip00.000101812
alpha found, alpha = 10, J = 16.0312, phip09.84877e-05
alpha found, alpha = 10, J = 16.0302, phip09.53134e-05
alpha found, alpha = 10, J = 16.0293, phip09.22803e-05
alpha found, alpha = 10, J = 16.0284, phip08.93804e-05
alpha found, alpha = 10, J = 16.0276, phip08.66061e-05
alpha found, alpha = 10, J = 16.0267, phip08.39502e-05
alpha found, alpha = 10, J = 16.0259, phip08.14062e-05
alpha found, alpha = 10, J = 16.0252, phip07.89677e-05
alpha found, alpha = 10, J = 16.0244, phip07.6629e-05
alpha found, alpha = 10, J = 16.0237, phip07.43846e-05
alpha found, alpha = 10, J = 16.0229, phip07.22295e-05
alpha found, alpha = 10, J = 16.0222, phip07.01588e-05
alpha found, alpha = 10, J = 16.0216, phip06.81682e-05
alpha found, alpha = 10, J = 16.0209, phip06.62533e-05
alpha found, alpha = 10, J = 16.0203, phip06.44103e-05
alpha found, alpha = 10, J = 16.0196, phip06.26355e-05
alpha found, alpha = 10, J = 16.019, phip06.09254e-05
alpha found, alpha = 10, J = 16.0184, phip05.92769e-05
alpha found, alpha = 10, J = 16.0179, phip05.76868e-05
alpha found, alpha = 10, J = 16.0173, phip05.61524e-05
alpha found, alpha = 10, J = 16.0168, phip05.46709e-05
alpha found, alpha = 10, J = 16.0162, phip05.32398e-05
alpha found, alpha = 10, J = 16.0157, phip05.18567e-05
alpha found, alpha = 10, J = 16.0152, phip05.05194e-05
alpha found, alpha = 10, J = 16.0147, phip04.92259e-05
alpha found, alpha = 10, J = 16.0143, phip04.79741e-05
alpha found, alpha = 10, J = 16.0138, phip04.67622e-05
alpha found, alpha = 10, J = 16.0133, phip04.55884e-05
alpha found, alpha = 10, J = 16.0129, phip04.44511e-05
alpha found, alpha = 10, J = 16.0125, phip04.33487e-05
alpha found, alpha = 10, J = 16.0121, phip04.22798e-05
alpha found, alpha = 10, J = 16.0116, phip04.12429e-05
alpha found, alpha = 10, J = 16.0112, phip04.02367e-05
alpha found, alpha = 10, J = 16.0109, phip03.92601e-05
alpha found, alpha = 10, J = 16.0105, phip03.83118e-05
alpha found, alpha = 10, J = 16.0101, phip03.73907e-05
alpha found, alpha = 10, J = 16.0097, phip03.64957e-05
alpha found, alpha = 10, J = 16.0094, phip03.56259e-05
alpha found, alpha = 10, J = 16.009, phip03.47804e-05
alpha found, alpha = 10, J = 16.0087, phip03.39581e-05
alpha found, alpha = 10, J = 16.0084, phip03.31584e-05
alpha found, alpha = 10, J = 16.008, phip03.23802e-05
alpha found, alpha = 10, J = 16.0077, phip03.1623e-05
alpha found, alpha = 10, J = 16.0074, phip03.0886e-05
alpha found, alpha = 10, J = 16.0071, phip03.01684e-05
alpha found, alpha = 10, J = 16.0068, phip02.94696e-05
alpha found, alpha = 10, J = 16.0065, phip02.8789e-05
alpha found, alpha = 10, J = 16.0063, phip02.81259e-05
alpha found, alpha = 10, J = 16.006, phip02.74798e-05
alpha found, alpha = 10, J = 16.0057, phip02.68502e-05
alpha found, alpha = 10, J = 16.0055, phip02.62365e-05
alpha found, alpha = 10, J = 16.0052, phip02.56382e-05
alpha found, alpha = 10, J = 16.005, phip02.50548e-05
alpha found, alpha = 10, J = 16.0047, phip02.4486e-05
alpha found, alpha = 10, J = 16.0045, phip02.39311e-05
alpha found, alpha = 10, J = 16.0042, phip02.33899e-05
alpha found, alpha = 10, J = 16.004, phip02.28619e-05
alpha found, alpha = 10, J = 16.0038, phip02.23467e-05
alpha found, alpha = 10, J = 16.0036, phip02.1844e-05
alpha found, alpha = 10, J = 16.0034, phip02.13533e-05
alpha found, alpha = 10, J = 16.0032, phip02.08744e-05
alpha found, alpha = 10, J = 16.003, phip02.0407e-05
alpha found, alpha = 10, J = 16.0028, phip01.99506e-05
alpha found, alpha = 10, J = 16.0026, phip01.9505e-05
alpha found, alpha = 10, J = 16.0024, phip01.907e-05
alpha found, alpha = 10, J = 16.0022, phip01.86451e-05
alpha found, alpha = 10, J = 16.002, phip01.82302e-05
alpha found, alpha = 10, J = 16.0018, phip01.7825e-05
alpha found, alpha = 10, J = 16.0017, phip01.74292e-05
alpha found, alpha = 10, J = 16.0015, phip01.70425e-05
alpha found, alpha = 10, J = 16.0013, phip01.66648e-05
alpha found, alpha = 10, J = 16.0012, phip01.62958e-05
alpha found, alpha = 10, J = 16.001, phip01.59353e-05
alpha found, alpha = 10, J = 16.0008, phip01.5583e-05
alpha found, alpha = 10, J = 16.0007, phip01.52388e-05
alpha found, alpha = 10, J = 16.0005, phip01.49024e-05
alpha found, alpha = 10, J = 16.0004, phip01.45737e-05
alpha found, alpha = 10, J = 16.0003, phip01.42525e-05
alpha found, alpha = 10, J = 16.0001, phip01.39386e-05
alpha found, alpha = 10, J = 16, phip01.36317e-05
alpha found, alpha = 10, J = 15.9999, phip01.33318e-05
alpha found, alpha = 10, J = 15.9997, phip01.30387e-05
alpha found, alpha = 10, J = 15.9996, phip01.27521e-05
alpha found, alpha = 10, J = 15.9995, phip01.2472e-05
alpha found, alpha = 10, J = 15.9994, phip01.21982e-05
alpha found, alpha = 10, J = 15.9992, phip01.19305e-05
alpha found, alpha = 10, J = 15.9991, phip01.16687e-05
alpha found, alpha = 10, J = 15.999, phip01.14129e-05
alpha found, alpha = 10, J = 15.9989, phip01.11627e-05
alpha found, alpha = 10, J = 15.9988, phip01.09182e-05
alpha found, alpha = 10, J = 15.9987, phip01.0679e-05
alpha found, alpha = 10, J = 15.9986, phip01.04452e-05
alpha found, alpha = 10, J = 15.9985, phip01.02166e-05
alpha found, alpha = 10, J = 15.9984, phip09.99305e-06
alpha found, alpha = 10, J = 15.9983, phip09.77446e-06
alpha found, alpha = 10, J = 15.9982, phip09.56072e-06
alpha found, alpha = 10, J = 15.9981, phip09.3517e-06
alpha found, alpha = 10, J = 15.998, phip09.1473e-06
alpha found, alpha = 10, J = 15.9979, phip08.94743e-06
alpha found, alpha = 10, J = 15.9978, phip08.75196e-06
alpha found, alpha = 10, J = 15.9977, phip08.56081e-06
alpha found, alpha = 10, J = 15.9977, phip08.37387e-06
alpha found, alpha = 10, J = 15.9976, phip08.19106e-06
alpha found, alpha = 10, J = 15.9975, phip08.01226e-06
alpha found, alpha = 10, J = 15.9974, phip07.83741e-06
alpha found, alpha = 10, J = 15.9973, phip07.6664e-06
alpha found, alpha = 10, J = 15.9973, phip07.49915e-06
alpha found, alpha = 10, J = 15.9972, phip07.33557e-06
alpha found, alpha = 10, J = 15.9971, phip07.17559e-06
alpha found, alpha = 10, J = 15.9971, phip07.01912e-06
alpha found, alpha = 10, J = 15.997, phip06.86608e-06
alpha found, alpha = 10, J = 15.9969, phip06.7164e-06
alpha found, alpha = 10, J = 15.9969, phip06.57e-06
alpha found, alpha = 10, J = 15.9968, phip06.42681e-06
alpha found, alpha = 10, J = 15.9967, phip06.28676e-06
alpha found, alpha = 10, J = 15.9967, phip06.14977e-06
alpha found, alpha = 10, J = 15.9966, phip06.01579e-06
alpha found, alpha = 10, J = 15.9965, phip05.88473e-06
alpha found, alpha = 10, J = 15.9965, phip05.75655e-06
alpha found, alpha = 10, J = 15.9964, phip05.63116e-06
alpha found, alpha = 10, J = 15.9964, phip05.50853e-06
alpha found, alpha = 10, J = 15.9963, phip05.38857e-06
alpha found, alpha = 10, J = 15.9963, phip05.27123e-06
alpha found, alpha = 10, J = 15.9962, phip05.15646e-06
alpha found, alpha = 10, J = 15.9962, phip05.0442e-06
alpha found, alpha = 10, J = 15.9961, phip04.93438e-06
alpha found, alpha = 10, J = 15.9961, phip04.82697e-06
alpha found, alpha = 10, J = 15.996, phip04.7219e-06
alpha found, alpha = 10, J = 15.996, phip04.61913e-06
alpha found, alpha = 10, J = 15.9959, phip04.51859e-06
alpha found, alpha = 10, J = 15.9959, phip04.42026e-06
alpha found, alpha = 10, J = 15.9958, phip04.32407e-06
alpha found, alpha = 10, J = 15.9958, phip04.22997e-06
alpha found, alpha = 10, J = 15.9958, phip04.13793e-06
alpha found, alpha = 10, J = 15.9957, phip04.0479e-06
alpha found, alpha = 10, J = 15.9957, phip03.95983e-06
alpha found, alpha = 10, J = 15.9956, phip03.87368e-06
alpha found, alpha = 10, J = 15.9956, phip03.78941e-06
alpha found, alpha = 10, J = 15.9956, phip03.70697e-06
alpha found, alpha = 10, J = 15.9955, phip03.62634e-06
alpha found, alpha = 10, J = 15.9955, phip03.54745e-06
alpha found, alpha = 10, J = 15.9955, phip03.47029e-06
alpha found, alpha = 10, J = 15.9954, phip03.39481e-06
alpha found, alpha = 10, J = 15.9954, phip03.32098e-06
alpha found, alpha = 10, J = 15.9954, phip03.24875e-06
alpha found, alpha = 10, J = 15.9953, phip03.1781e-06
alpha found, alpha = 10, J = 15.9953, phip03.10898e-06
alpha found, alpha = 10, J = 15.9953, phip03.04138e-06
alpha found, alpha = 10, J = 15.9952, phip02.97524e-06
alpha found, alpha = 10, J = 15.9952, phip02.91054e-06
alpha found, alpha = 10, J = 15.9952, phip02.84726e-06
alpha found, alpha = 10, J = 15.9952, phip02.78535e-06
alpha found, alpha = 10, J = 15.9951, phip02.72478e-06
alpha found, alpha = 10, J = 15.9951, phip02.66554e-06
alpha found, alpha = 10, J = 15.9951, phip02.60759e-06
alpha found, alpha = 10, J = 15.9951, phip02.5509e-06
alpha found, alpha = 10, J = 15.995, phip02.49544e-06
alpha found, alpha = 10, J = 15.995, phip02.44119e-06
alpha found, alpha = 10, J = 15.995, phip02.38812e-06
alpha found, alpha = 10, J = 15.995, phip02.3362e-06
alpha found, alpha = 10, J = 15.9949, phip02.28542e-06
alpha found, alpha = 10, J = 15.9949, phip02.23574e-06
alpha found, alpha = 10, J = 15.9949, phip02.18714e-06
alpha found, alpha = 10, J = 15.9949, phip02.1396e-06
alpha found, alpha = 10, J = 15.9948, phip02.09309e-06
alpha found, alpha = 10, J = 15.9948, phip02.0476e-06
alpha found, alpha = 10, J = 15.9948, phip02.00309e-06
alpha found, alpha = 10, J = 15.9948, phip01.95956e-06
alpha found, alpha = 10, J = 15.9948, phip01.91697e-06
alpha found, alpha = 10, J = 15.9948, phip01.87531e-06
alpha found, alpha = 10, J = 15.9947, phip01.83455e-06
alpha found, alpha = 10, J = 15.9947, phip01.79468e-06
alpha found, alpha = 10, J = 15.9947, phip01.75568e-06
alpha found, alpha = 10, J = 15.9947, phip01.71752e-06
alpha found, alpha = 10, J = 15.9947, phip01.6802e-06
alpha found, alpha = 10, J = 15.9946, phip01.64369e-06
alpha found, alpha = 10, J = 15.9946, phip01.60797e-06
alpha found, alpha = 10, J = 15.9946, phip01.57303e-06
alpha found, alpha = 10, J = 15.9946, phip01.53884e-06
alpha found, alpha = 10, J = 15.9946, phip01.50541e-06
alpha found, alpha = 10, J = 15.9946, phip01.4727e-06
alpha found, alpha = 10, J = 15.9946, phip01.4407e-06
alpha found, alpha = 10, J = 15.9945, phip01.40939e-06
alpha found, alpha = 10, J = 15.9945, phip01.37877e-06
alpha found, alpha = 10, J = 15.9945, phip01.34881e-06
alpha found, alpha = 10, J = 15.9945, phip01.31951e-06
alpha found, alpha = 10, J = 15.9945, phip01.29084e-06
alpha found, alpha = 10, J = 15.9945, phip01.26279e-06
alpha found, alpha = 10, J = 15.9945, phip01.23536e-06
alpha found, alpha = 10, J = 15.9945, phip01.20852e-06
alpha found, alpha = 10, J = 15.9944, phip01.18227e-06
alpha found, alpha = 10, J = 15.9944, phip01.15658e-06
alpha found, alpha = 10, J = 15.9944, phip01.13146e-06
alpha found, alpha = 10, J = 15.9944, phip01.10688e-06
alpha found, alpha = 10, J = 15.9944, phip01.08283e-06
alpha found, alpha = 10, J = 15.9944, phip01.05931e-06
alpha found, alpha = 10, J = 15.9944, phip01.0363e-06
alpha found, alpha = 10, J = 15.9944, phip01.01379e-06
alpha found, alpha = 10, J = 15.9944, phip09.91766e-07
alpha found, alpha = 10, J = 15.9943, phip09.70223e-07
alpha found, alpha = 10, J = 15.9943, phip09.49149e-07
alpha found, alpha = 10, J = 15.9943, phip09.28533e-07
alpha found, alpha = 10, J = 15.9943, phip09.08364e-07
alpha found, alpha = 10, J = 15.9943, phip08.88635e-07
alpha found, alpha = 10, J = 15.9943, phip08.69334e-07
alpha found, alpha = 10, J = 15.9943, phip08.50453e-07
alpha found, alpha = 10, J = 15.9943, phip08.31982e-07
alpha found, alpha = 10, J = 15.9943, phip08.13912e-07
alpha found, alpha = 10, J = 15.9943, phip07.96235e-07
alpha found, alpha = 10, J = 15.9943, phip07.78943e-07
alpha found, alpha = 10, J = 15.9943, phip07.62026e-07
alpha found, alpha = 10, J = 15.9942, phip07.45477e-07
alpha found, alpha = 10, J = 15.9942, phip07.29288e-07
alpha found, alpha = 10, J = 15.9942, phip07.1345e-07
alpha found, alpha = 10, J = 15.9942, phip06.97957e-07
alpha found, alpha = 10, J = 15.9942, phip06.82801e-07
alpha found, alpha = 10, J = 15.9942, phip06.67973e-07
alpha found, alpha = 10, J = 15.9942, phip06.53468e-07
alpha found, alpha = 10, J = 15.9942, phip06.39279e-07
alpha found, alpha = 10, J = 15.9942, phip06.25397e-07
alpha found, alpha = 10, J = 15.9942, phip06.11817e-07
alpha found, alpha = 10, J = 15.9942, phip05.98533e-07
alpha found, alpha = 10, J = 15.9942, phip05.85537e-07
alpha found, alpha = 10, J = 15.9942, phip05.72823e-07
alpha found, alpha = 10, J = 15.9942, phip05.60386e-07
alpha found, alpha = 10, J = 15.9942, phip05.48219e-07
alpha found, alpha = 10, J = 15.9942, phip05.36316e-07
alpha found, alpha = 10, J = 15.9941, phip05.24672e-07
alpha found, alpha = 10, J = 15.9941, phip05.13281e-07
alpha found, alpha = 10, J = 15.9941, phip05.02137e-07
alpha found, alpha = 10, J = 15.9941, phip04.91235e-07
alpha found, alpha = 10, J = 15.9941, phip04.80571e-07
alpha found, alpha = 10, J = 15.9941, phip04.70138e-07
alpha found, alpha = 10, J = 15.9941, phip04.59932e-07
alpha found, alpha = 10, J = 15.9941, phip04.49947e-07
alpha found, alpha = 10, J = 15.9941, phip04.40179e-07
alpha found, alpha = 10, J = 15.9941, phip04.30624e-07
alpha found, alpha = 10, J = 15.9941, phip04.21276e-07
alpha found, alpha = 10, J = 15.9941, phip04.12131e-07
alpha found, alpha = 10, J = 15.9941, phip04.03185e-07
alpha found, alpha = 10, J = 15.9941, phip03.94433e-07
alpha found, alpha = 10, J = 15.9941, phip03.85872e-07
alpha found, alpha = 10, J = 15.9941, phip03.77496e-07
alpha found, alpha = 10, J = 15.9941, phip03.69302e-07
alpha found, alpha = 10, J = 15.9941, phip03.61287e-07
alpha found, alpha = 10, J = 15.9941, phip03.53445e-07
alpha found, alpha = 10, J = 15.9941, phip03.45774e-07
alpha found, alpha = 10, J = 15.9941, phip03.38269e-07
alpha found, alpha = 10, J = 15.9941, phip03.30927e-07
alpha found, alpha = 10, J = 15.9941, phip03.23745e-07
alpha found, alpha = 10, J = 15.9941, phip03.16719e-07
alpha found, alpha = 10, J = 15.9941, phip03.09845e-07
alpha found, alpha = 10, J = 15.994, phip03.03121e-07
alpha found, alpha = 10, J = 15.994, phip02.96543e-07
alpha found, alpha = 10, J = 15.994, phip02.90107e-07
alpha found, alpha = 10, J = 15.994, phip02.83812e-07
alpha found, alpha = 10, J = 15.994, phip02.77653e-07
alpha found, alpha = 10, J = 15.994, phip02.71628e-07
alpha found, alpha = 10, J = 15.994, phip02.65733e-07
alpha found, alpha = 10, J = 15.994, phip02.59967e-07
alpha found, alpha = 10, J = 15.994, phip02.54326e-07
alpha found, alpha = 10, J = 15.994, phip02.48807e-07
alpha found, alpha = 10, J = 15.994, phip02.43409e-07
alpha found, alpha = 10, J = 15.994, phip02.38127e-07
alpha found, alpha = 10, J = 15.994, phip02.3296e-07
alpha found, alpha = 10, J = 15.994, phip02.27906e-07
alpha found, alpha = 10, J = 15.994, phip02.22961e-07
alpha found, alpha = 10, J = 15.994, phip02.18123e-07
alpha found, alpha = 10, J = 15.994, phip02.13391e-07
alpha found, alpha = 10, J = 15.994, phip02.08761e-07
alpha found, alpha = 10, J = 15.994, phip02.04232e-07
alpha found, alpha = 10, J = 15.994, phip01.99801e-07
alpha found, alpha = 10, J = 15.994, phip01.95467e-07
alpha found, alpha = 10, J = 15.994, phip01.91226e-07
alpha found, alpha = 10, J = 15.994, phip01.87078e-07
alpha found, alpha = 10, J = 15.994, phip01.83019e-07
alpha found, alpha = 10, J = 15.994, phip01.79049e-07
alpha found, alpha = 10, J = 15.994, phip01.75165e-07
alpha found, alpha = 10, J = 15.994, phip01.71365e-07
alpha found, alpha = 10, J = 15.994, phip01.67648e-07
alpha found, alpha = 10, J = 15.994, phip01.64011e-07
alpha found, alpha = 10, J = 15.994, phip01.60454e-07
alpha found, alpha = 10, J = 15.994, phip01.56973e-07
alpha found, alpha = 10, J = 15.994, phip01.53568e-07
alpha found, alpha = 10, J = 15.994, phip01.50238e-07
alpha found, alpha = 10, J = 15.994, phip01.46979e-07
alpha found, alpha = 10, J = 15.994, phip01.43791e-07
alpha found, alpha = 10, J = 15.994, phip01.40672e-07
alpha found, alpha = 10, J = 15.994, phip01.37621e-07
alpha found, alpha = 10, J = 15.994, phip01.34637e-07
alpha found, alpha = 10, J = 15.994, phip01.31717e-07
alpha found, alpha = 10, J = 15.994, phip01.2886e-07
alpha found, alpha = 10, J = 15.994, phip01.26065e-07
alpha found, alpha = 10, J = 15.994, phip01.23331e-07
alpha found, alpha = 10, J = 15.994, phip01.20657e-07
alpha found, alpha = 10, J = 15.994, phip01.1804e-07
alpha found, alpha = 10, J = 15.994, phip01.15481e-07
alpha found, alpha = 10, J = 15.994, phip01.12976e-07
alpha found, alpha = 10, J = 15.994, phip01.10527e-07
alpha found, alpha = 10, J = 15.994, phip01.0813e-07
alpha found, alpha = 10, J = 15.994, phip01.05785e-07
alpha found, alpha = 10, J = 15.994, phip01.03491e-07
alpha found, alpha = 10, J = 15.994, phip01.01247e-07
alpha found, alpha = 10, J = 15.994, phip09.9052e-08
alpha found, alpha = 10, J = 15.994, phip09.69043e-08
alpha found, alpha = 10, J = 15.994, phip09.48032e-08
alpha found, alpha = 10, J = 15.994, phip09.27477e-08
alpha found, alpha = 10, J = 15.994, phip09.07369e-08
alpha found, alpha = 10, J = 15.994, phip08.87696e-08
alpha found, alpha = 10, J = 15.994, phip08.6845e-08
alpha found, alpha = 10, J = 15.9939, phip08.49622e-08
alpha found, alpha = 10, J = 15.9939, phip08.31203e-08
alpha found, alpha = 10, J = 15.9939, phip08.13183e-08
alpha found, alpha = 10, J = 15.9939, phip07.95554e-08
alpha found, alpha = 10, J = 15.9939, phip07.78308e-08
alpha found, alpha = 10, J = 15.9939, phip07.61436e-08
alpha found, alpha = 10, J = 15.9939, phip07.4493e-08
alpha found, alpha = 10, J = 15.9939, phip07.28782e-08
alpha found, alpha = 10, J = 15.9939, phip07.12984e-08
alpha found, alpha = 10, J = 15.9939, phip06.97529e-08
alpha found, alpha = 10, J = 15.9939, phip06.82409e-08
alpha found, alpha = 10, J = 15.9939, phip06.67618e-08
alpha found, alpha = 10, J = 15.9939, phip06.53147e-08
alpha found, alpha = 10, J = 15.9939, phip06.3899e-08
alpha found, alpha = 10, J = 15.9939, phip06.2514e-08
alpha found, alpha = 10, J = 15.9939, phip06.11591e-08
alpha found, alpha = 10, J = 15.9939, phip05.98336e-08
alpha found, alpha = 10, J = 15.9939, phip05.85368e-08
alpha found, alpha = 10, J = 15.9939, phip05.72681e-08
alpha found, alpha = 10, J = 15.9939, phip05.6027e-08
alpha found, alpha = 10, J = 15.9939, phip05.48128e-08
alpha found, alpha = 10, J = 15.9939, phip05.36249e-08
alpha found, alpha = 10, J = 15.9939, phip05.24628e-08
alpha found, alpha = 10, J = 15.9939, phip05.13259e-08
alpha found, alpha = 10, J = 15.9939, phip05.02136e-08
alpha found, alpha = 10, J = 15.9939, phip04.91255e-08
alpha found, alpha = 10, J = 15.9939, phip04.80609e-08
alpha found, alpha = 10, J = 15.9939, phip04.70195e-08
alpha found, alpha = 10, J = 15.9939, phip04.60007e-08
alpha found, alpha = 10, J = 15.9939, phip04.50039e-08
alpha found, alpha = 10, J = 15.9939, phip04.40288e-08
alpha found, alpha = 10, J = 15.9939, phip04.30748e-08
alpha found, alpha = 10, J = 15.9939, phip04.21415e-08
alpha found, alpha = 10, J = 15.9939, phip04.12284e-08
alpha found, alpha = 10, J = 15.9939, phip04.03351e-08
alpha found, alpha = 10, J = 15.9939, phip03.94612e-08
alpha found, alpha = 10, J = 15.9939, phip03.86063e-08
alpha found, alpha = 10, J = 15.9939, phip03.77699e-08
alpha found, alpha = 10, J = 15.9939, phip03.69516e-08
alpha found, alpha = 10, J = 15.9939, phip03.61511e-08
alpha found, alpha = 10, J = 15.9939, phip03.53679e-08
alpha found, alpha = 10, J = 15.9939, phip03.46017e-08
alpha found, alpha = 10, J = 15.9939, phip03.38521e-08
alpha found, alpha = 10, J = 15.9939, phip03.31188e-08
alpha found, alpha = 10, J = 15.9939, phip03.24014e-08
alpha found, alpha = 10, J = 15.9939, phip03.16995e-08
alpha found, alpha = 10, J = 15.9939, phip03.10129e-08
alpha found, alpha = 10, J = 15.9939, phip03.03411e-08
alpha found, alpha = 10, J = 15.9939, phip02.96839e-08
alpha found, alpha = 10, J = 15.9939, phip02.9041e-08
alpha found, alpha = 10, J = 15.9939, phip02.84119e-08
alpha found, alpha = 10, J = 15.9939, phip02.77965e-08
alpha found, alpha = 10, J = 15.9939, phip02.71945e-08
alpha found, alpha = 10, J = 15.9939, phip02.66055e-08
alpha found, alpha = 10, J = 15.9939, phip02.60293e-08
alpha found, alpha = 10, J = 15.9939, phip02.54656e-08
alpha found, alpha = 10, J = 15.9939, phip02.49141e-08
alpha found, alpha = 10, J = 15.9939, phip02.43745e-08
alpha found, alpha = 10, J = 15.9939, phip02.38466e-08
alpha found, alpha = 10, J = 15.9939, phip02.33302e-08
alpha found, alpha = 10, J = 15.9939, phip02.2825e-08
alpha found, alpha = 10, J = 15.9939, phip02.23307e-08
alpha found, alpha = 10, J = 15.9939, phip02.18472e-08
alpha found, alpha = 10, J = 15.9939, phip02.13741e-08
alpha found, alpha = 10, J = 15.9939, phip02.09113e-08
alpha found, alpha = 10, J = 15.9939, phip02.04585e-08
alpha found, alpha = 10, J = 15.9939, phip02.00155e-08
alpha found, alpha = 10, J = 15.9939, phip01.95821e-08
alpha found, alpha = 10, J = 15.9939, phip01.91581e-08
alpha found, alpha = 10, J = 15.9939, phip01.87433e-08
alpha found, alpha = 10, J = 15.9939, phip01.83375e-08
alpha found, alpha = 10, J = 15.9939, phip01.79405e-08
alpha found, alpha = 10, J = 15.9939, phip01.75521e-08
alpha found, alpha = 10, J = 15.9939, phip01.71721e-08
alpha found, alpha = 10, J = 15.9939, phip01.68003e-08
alpha found, alpha = 10, J = 15.9939, phip01.64366e-08
alpha found, alpha = 10, J = 15.9939, phip01.60808e-08
alpha found, alpha = 10, J = 15.9939, phip01.57326e-08
alpha found, alpha = 10, J = 15.9939, phip01.53921e-08
alpha found, alpha = 10, J = 15.9939, phip01.50589e-08
alpha found, alpha = 10, J = 15.9939, phip01.47329e-08
alpha found, alpha = 10, J = 15.9939, phip01.4414e-08
alpha found, alpha = 10, J = 15.9939, phip01.4102e-08
alpha found, alpha = 10, J = 15.9939, phip01.37967e-08
alpha found, alpha = 10, J = 15.9939, phip01.34981e-08
alpha found, alpha = 10, J = 15.9939, phip01.32059e-08
alpha found, alpha = 10, J = 15.9939, phip01.29201e-08
alpha found, alpha = 10, J = 15.9939, phip01.26405e-08
alpha found, alpha = 10, J = 15.9939, phip01.23669e-08
alpha found, alpha = 10, J = 15.9939, phip01.20992e-08
alpha found, alpha = 10, J = 15.9939, phip01.18374e-08
alpha found, alpha = 10, J = 15.9939, phip01.15812e-08
alpha found, alpha = 10, J = 15.9939, phip01.13306e-08
alpha found, alpha = 10, J = 15.9939, phip01.10854e-08
alpha found, alpha = 10, J = 15.9939, phip01.08455e-08
alpha found, alpha = 10, J = 15.9939, phip01.06108e-08
alpha found, alpha = 10, J = 15.9939, phip01.03811e-08
alpha found, alpha = 10, J = 15.9939, phip01.01565e-08
alpha found, alpha = 10, J = 15.9939, phip09.93673e-09
alpha found, alpha = 10, J = 15.9939, phip09.72172e-09
alpha found, alpha = 10, J = 15.9939, phip09.51136e-09
alpha found, alpha = 10, J = 15.9939, phip09.30556e-09
alpha found, alpha = 10, J = 15.9939, phip09.10421e-09
alpha found, alpha = 10, J = 15.9939, phip08.90723e-09
alpha found, alpha = 10, J = 15.9939, phip08.71451e-09
alpha found, alpha = 10, J = 15.9939, phip08.52597e-09
alpha found, alpha = 10, J = 15.9939, phip08.3415e-09
alpha found, alpha = 10, J = 15.9939, phip08.16104e-09
alpha found, alpha = 10, J = 15.9939, phip07.98448e-09
alpha found, alpha = 10, J = 15.9939, phip07.81174e-09
alpha found, alpha = 10, J = 15.9939, phip07.64275e-09
alpha found, alpha = 10, J = 15.9939, phip07.47741e-09
alpha found, alpha = 10, J = 15.9939, phip07.31566e-09
alpha found, alpha = 10, J = 15.9939, phip07.15741e-09
alpha found, alpha = 10, J = 15.9939, phip07.00258e-09
alpha found, alpha = 10, J = 15.9939, phip06.85111e-09
alpha found, alpha = 10, J = 15.9939, phip06.70291e-09
alpha found, alpha = 10, J = 15.9939, phip06.55793e-09
alpha found, alpha = 10, J = 15.9939, phip06.41608e-09
alpha found, alpha = 10, J = 15.9939, phip06.2773e-09
alpha found, alpha = 10, J = 15.9939, phip06.14153e-09
alpha found, alpha = 10, J = 15.9939, phip06.0087e-09
alpha found, alpha = 10, J = 15.9939, phip05.87874e-09
alpha found, alpha = 10, J = 15.9939, phip05.7516e-09
alpha found, alpha = 10, J = 15.9939, phip05.62721e-09
alpha found, alpha = 10, J = 15.9939, phip05.5055e-09
alpha found, alpha = 10, J = 15.9939, phip05.38645e-09
alpha found, alpha = 10, J = 15.9939, phip05.26996e-09
alpha found, alpha = 10, J = 15.9939, phip05.15598e-09
alpha found, alpha = 10, J = 15.9939, phip05.04447e-09
alpha found, alpha = 10, J = 15.9939, phip04.93539e-09
alpha found, alpha = 10, J = 15.9939, phip04.82867e-09
alpha found, alpha = 10, J = 15.9939, phip04.72425e-09
alpha found, alpha = 10, J = 15.9939, phip04.6221e-09
alpha found, alpha = 10, J = 15.9939, phip04.52216e-09
alpha found, alpha = 10, J = 15.9939, phip04.42438e-09
alpha found, alpha = 10, J = 15.9939, phip04.32872e-09
alpha found, alpha = 10, J = 15.9939, phip04.23513e-09
alpha found, alpha = 10, J = 15.9939, phip04.14356e-09
alpha found, alpha = 10, J = 15.9939, phip04.05398e-09
alpha found, alpha = 10, J = 15.9939, phip03.96633e-09
alpha found, alpha = 10, J = 15.9939, phip03.88059e-09
alpha found, alpha = 10, J = 15.9939, phip03.79669e-09
alpha found, alpha = 10, J = 15.9939, phip03.71461e-09
alpha found, alpha = 10, J = 15.9939, phip03.63431e-09
alpha found, alpha = 10, J = 15.9939, phip03.55575e-09
alpha found, alpha = 10, J = 15.9939, phip03.47889e-09
alpha found, alpha = 10, J = 15.9939, phip03.40369e-09
alpha found, alpha = 10, J = 15.9939, phip03.33011e-09
alpha found, alpha = 10, J = 15.9939, phip03.25813e-09
alpha found, alpha = 10, J = 15.9939, phip03.18771e-09
alpha found, alpha = 10, J = 15.9939, phip03.11881e-09
alpha found, alpha = 10, J = 15.9939, phip03.0514e-09
alpha found, alpha = 10, J = 15.9939, phip02.98545e-09
alpha found, alpha = 10, J = 15.9939, phip02.92092e-09
alpha found, alpha = 10, J = 15.9939, phip02.8578e-09
alpha found, alpha = 10, J = 15.9939, phip02.79602e-09
alpha found, alpha = 10, J = 15.9939, phip02.73559e-09
alpha found, alpha = 10, J = 15.9939, phip02.6765e-09
alpha found, alpha = 10, J = 15.9939, phip02.61866e-09
alpha found, alpha = 10, J = 15.9939, phip02.56206e-09
alpha found, alpha = 10, J = 15.9939, phip02.50669e-09
alpha found, alpha = 10, J = 15.9939, phip02.45252e-09
alpha found, alpha = 10, J = 15.9939, phip02.39953e-09
alpha found, alpha = 10, J = 15.9939, phip02.34768e-09
alpha found, alpha = 10, J = 15.9939, phip02.29695e-09
alpha found, alpha = 10, J = 15.9939, phip02.24732e-09
alpha found, alpha = 10, J = 15.9939, phip02.19876e-09
alpha found, alpha = 10, J = 15.9939, phip02.15125e-09
alpha found, alpha = 10, J = 15.9939, phip02.10478e-09
alpha found, alpha = 10, J = 15.9939, phip02.05929e-09
alpha found, alpha = 10, J = 15.9939, phip02.0148e-09
alpha found, alpha = 10, J = 15.9939, phip01.97129e-09
alpha found, alpha = 10, J = 15.9939, phip01.9287e-09
alpha found, alpha = 10, J = 15.9939, phip01.88703e-09
alpha found, alpha = 10, J = 15.9939, phip01.84625e-09
alpha found, alpha = 10, J = 15.9939, phip01.80637e-09
alpha found, alpha = 10, J = 15.9939, phip01.76734e-09
alpha found, alpha = 10, J = 15.9939, phip01.72918e-09
alpha found, alpha = 10, J = 15.9939, phip01.69183e-09
alpha found, alpha = 10, J = 15.9939, phip01.65529e-09
alpha found, alpha = 10, J = 15.9939, phip01.61953e-09
alpha found, alpha = 10, J = 15.9939, phip01.58455e-09
alpha found, alpha = 10, J = 15.9939, phip01.55032e-09
alpha found, alpha = 10, J = 15.9939, phip01.51683e-09
alpha found, alpha = 10, J = 15.9939, phip01.48407e-09
alpha found, alpha = 10, J = 15.9939, phip01.45203e-09
alpha found, alpha = 10, J = 15.9939, phip01.42067e-09
alpha found, alpha = 10, J = 15.9939, phip01.38998e-09
alpha found, alpha = 10, J = 15.9939, phip01.35996e-09
alpha found, alpha = 10, J = 15.9939, phip01.33059e-09
alpha found, alpha = 10, J = 15.9939, phip01.30186e-09
alpha found, alpha = 10, J = 15.9939, phip01.27374e-09
alpha found, alpha = 10, J = 15.9939, phip01.24625e-09
alpha found, alpha = 10, J = 15.9939, phip01.21934e-09
alpha found, alpha = 10, J = 15.9939, phip01.193e-09
alpha found, alpha = 10, J = 15.9939, phip01.16724e-09
alpha found, alpha = 10, J = 15.9939, phip01.14204e-09
alpha found, alpha = 10, J = 15.9939, phip01.11738e-09
alpha found, alpha = 10, J = 15.9939, phip01.09326e-09
alpha found, alpha = 10, J = 15.9939, phip01.06965e-09
alpha found, alpha = 10, J = 15.9939, phip01.04656e-09
alpha found, alpha = 10, J = 15.9939, phip01.02396e-09
alpha found, alpha = 10, J = 15.9939, phip01.00186e-09

End

